LTspice 24.0.12 for Windows
Circuit: * C:\Users\VIDUSHI KOCHHAR\Desktop\Draft1.asc
Start Time: Fri Jul 17 23:22:02 2026
Error on line 7 : d1 n014 0 led
	 Unable to find definition of model "led"
solver = Normal
Maximum thread count: 16
tnom = 27
temp = 27
method = modified trap
Direct Newton iteration failed to find .op point.  (Use ".option noopiter" to skip.)
Starting Gmin stepping
Gmin = 10
Gmin = 1.07374
Gmin = 0.115292
Gmin = 0.0123794
Gmin = 0.00132923
vernier = 0.5
Gmin = 0.000275318
vernier = 0.666667
vernier = 0.888888
Gmin = 6.27402e-05
vernier = 1
Gmin = 7.53781e-06
Gmin = 8.09366e-07
Gmin = 8.6905e-08
Gmin = 9.33136e-09
Gmin = 1.00195e-09
Gmin = 1.07583e-10
Gmin = 1.15517e-11
Gmin = 1.24035e-12
Gmin = 1.33182e-13
Gmin = 0
Gmin stepping succeeded in finding the operating point.

Direct Newton iteration failed to find .op point.  (Use ".option noopiter" to skip.)
Starting Gmin stepping
Gmin = 10
Gmin = 1.07374
Gmin = 0.115292
Gmin = 0.0123794
Gmin = 0.00132923
vernier = 0.5
Gmin = 0.000275318
vernier = 0.666667
vernier = 0.888888
Gmin = 6.27402e-05
vernier = 1
Gmin = 7.53781e-06
Gmin = 8.09366e-07
vernier = 0.5
Gmin = 1.50877e-07
vernier = 0.666667
Gmin = 3.73535e-08
vernier = 0.888888
vernier = 1
Gmin = 4.58977e-09
Gmin = 4.92823e-10
Gmin = 5.29164e-11
Gmin = 5.68186e-12
Gmin = 6.10085e-13
Gmin = 0
Gmin stepping succeeded in finding the operating point.

Direct Newton iteration failed to find .op point.  (Use ".option noopiter" to skip.)
Starting Gmin stepping
Gmin = 10
Gmin = 1.07374
Gmin = 0.115292
Gmin = 0.0123794
Gmin = 0.00132923
vernier = 0.5
Gmin = 0.000275318
vernier = 0.666667
vernier = 0.888888
Gmin = 6.27402e-05
vernier = 1
Gmin = 7.53781e-06
Gmin = 8.09366e-07
vernier = 0.5
vernier = 0.25
vernier = 0.125
vernier = 0.0625
Gmin = 6.18066e-07
vernier = 0.0833333
vernier = 0.111111
Gmin = 5.01234e-07
vernier = 0.148148
Gmin = 3.61142e-07
vernier = 0.197531
vernier = 0.263374
Gmin = 2.09557e-07
vernier = 0.351165
vernier = 0.46822
Gmin = 8.9226e-08
vernier = 0.624294
Gmin = 2.40038e-08
vernier = 0.832392
vernier = 1
Gmin = 3.16248e-09
Gmin = 3.39569e-10
Gmin = 3.64609e-11
Gmin = 3.91496e-12
Gmin = 4.20366e-13
Gmin = 0
Gmin stepping succeeded in finding the operating point.

Direct Newton iteration for .op point succeeded.
Total elapsed time: 1.609 seconds.

